/*--------------------------------*- C++ -*----------------------------------*\
| =========                 |                                                 |
| \\      /  F ield         | OpenFOAM: The Open Source CFD Toolbox           |
|  \\    /   O peration     | Version:  2506                                  |
|   \\  /    A nd           | Website:  www.openfoam.com                      |
|    \\/     M anipulation  |                                                 |
\*---------------------------------------------------------------------------*/
FoamFile
{
    version     2.0;
    format      ascii;
    arch        "LSB;label=32;scalar=64";
    class       polyBoundaryMesh;
    location    "constant/polyMesh";
    object      boundary;
}
// * * * * * * * * * * * * * * * * * * * * * * * * * * * * * * * * * * * * * //

7
(
    Side
    {
        type            empty;
        inGroups        1(empty);
        nFaces          6930;
        startFace       6777;
    }
    Inlet
    {
        type            patch;
        nFaces          89;
        startFace       13707;
    }
    Airfoil
    {
        type            wall;
        inGroups        1(wall);
        nFaces          0;
        startFace       13796;
    }
    Outlet
    {
        type            patch;
        nFaces          0;
        startFace       13796;
    }
    procBoundary45to13
    {
        type            processor;
        inGroups        1(processor);
        nFaces          109;
        startFace       13796;
        matchTolerance  0.0001;
        transform       unknown;
        myProcNo        45;
        neighbProcNo    13;
    }
    procBoundary45to17
    {
        type            processor;
        inGroups        1(processor);
        nFaces          34;
        startFace       13905;
        matchTolerance  0.0001;
        transform       unknown;
        myProcNo        45;
        neighbProcNo    17;
    }
    procBoundary45to29
    {
        type            processor;
        inGroups        1(processor);
        nFaces          74;
        startFace       13939;
        matchTolerance  0.0001;
        transform       unknown;
        myProcNo        45;
        neighbProcNo    29;
    }
)

// ************************************************************************* //
