/*--------------------------------*- C++ -*----------------------------------*\
| =========                 |                                                 |
| \\      /  F ield         | OpenFOAM: The Open Source CFD Toolbox           |
|  \\    /   O peration     | Version:  2506                                  |
|   \\  /    A nd           | Website:  www.openfoam.com                      |
|    \\/     M anipulation  |                                                 |
\*---------------------------------------------------------------------------*/
FoamFile
{
    version     2.0;
    format      ascii;
    arch        "LSB;label=32;scalar=64";
    class       polyBoundaryMesh;
    location    "constant/polyMesh";
    object      boundary;
}
// * * * * * * * * * * * * * * * * * * * * * * * * * * * * * * * * * * * * * //

9
(
    Side
    {
        type            empty;
        inGroups        1(empty);
        nFaces          6888;
        startFace       6737;
    }
    Inlet
    {
        type            patch;
        nFaces          0;
        startFace       13625;
    }
    Airfoil
    {
        type            wall;
        inGroups        1(wall);
        nFaces          61;
        startFace       13625;
    }
    Outlet
    {
        type            patch;
        nFaces          0;
        startFace       13686;
    }
    procBoundary31to15
    {
        type            processor;
        inGroups        1(processor);
        nFaces          38;
        startFace       13686;
        matchTolerance  0.0001;
        transform       unknown;
        myProcNo        31;
        neighbProcNo    15;
    }
    procBoundary31to21
    {
        type            processor;
        inGroups        1(processor);
        nFaces          12;
        startFace       13724;
        matchTolerance  0.0001;
        transform       unknown;
        myProcNo        31;
        neighbProcNo    21;
    }
    procBoundary31to39
    {
        type            processor;
        inGroups        1(processor);
        nFaces          63;
        startFace       13736;
        matchTolerance  0.0001;
        transform       unknown;
        myProcNo        31;
        neighbProcNo    39;
    }
    procBoundary31to47
    {
        type            processor;
        inGroups        1(processor);
        nFaces          56;
        startFace       13799;
        matchTolerance  0.0001;
        transform       unknown;
        myProcNo        31;
        neighbProcNo    47;
    }
    procBoundary31to53
    {
        type            processor;
        inGroups        1(processor);
        nFaces          72;
        startFace       13855;
        matchTolerance  0.0001;
        transform       unknown;
        myProcNo        31;
        neighbProcNo    53;
    }
)

// ************************************************************************* //
