/*--------------------------------*- C++ -*----------------------------------*\
| =========                 |                                                 |
| \\      /  F ield         | OpenFOAM: The Open Source CFD Toolbox           |
|  \\    /   O peration     | Version:  2506                                  |
|   \\  /    A nd           | Website:  www.openfoam.com                      |
|    \\/     M anipulation  |                                                 |
\*---------------------------------------------------------------------------*/
FoamFile
{
    version     2.0;
    format      ascii;
    arch        "LSB;label=32;scalar=64";
    class       polyBoundaryMesh;
    location    "constant/polyMesh";
    object      boundary;
}
// * * * * * * * * * * * * * * * * * * * * * * * * * * * * * * * * * * * * * //

10
(
    Side
    {
        type            empty;
        inGroups        1(empty);
        nFaces          6948;
        startFace       6809;
    }
    Inlet
    {
        type            patch;
        nFaces          0;
        startFace       13757;
    }
    Airfoil
    {
        type            wall;
        inGroups        1(wall);
        nFaces          59;
        startFace       13757;
    }
    Outlet
    {
        type            patch;
        nFaces          0;
        startFace       13816;
    }
    procBoundary30to10
    {
        type            processor;
        inGroups        1(processor);
        nFaces          17;
        startFace       13816;
        matchTolerance  0.0001;
        transform       unknown;
        myProcNo        30;
        neighbProcNo    10;
    }
    procBoundary30to11
    {
        type            processor;
        inGroups        1(processor);
        nFaces          18;
        startFace       13833;
        matchTolerance  0.0001;
        transform       unknown;
        myProcNo        30;
        neighbProcNo    11;
    }
    procBoundary30to14
    {
        type            processor;
        inGroups        1(processor);
        nFaces          65;
        startFace       13851;
        matchTolerance  0.0001;
        transform       unknown;
        myProcNo        30;
        neighbProcNo    14;
    }
    procBoundary30to15
    {
        type            processor;
        inGroups        1(processor);
        nFaces          2;
        startFace       13916;
        matchTolerance  0.0001;
        transform       unknown;
        myProcNo        30;
        neighbProcNo    15;
    }
    procBoundary30to22
    {
        type            processor;
        inGroups        1(processor);
        nFaces          49;
        startFace       13918;
        matchTolerance  0.0001;
        transform       unknown;
        myProcNo        30;
        neighbProcNo    22;
    }
    procBoundary30to42
    {
        type            processor;
        inGroups        1(processor);
        nFaces          68;
        startFace       13967;
        matchTolerance  0.0001;
        transform       unknown;
        myProcNo        30;
        neighbProcNo    42;
    }
)

// ************************************************************************* //
