/*--------------------------------*- C++ -*----------------------------------*\
| =========                 |                                                 |
| \\      /  F ield         | OpenFOAM: The Open Source CFD Toolbox           |
|  \\    /   O peration     | Version:  2506                                  |
|   \\  /    A nd           | Website:  www.openfoam.com                      |
|    \\/     M anipulation  |                                                 |
\*---------------------------------------------------------------------------*/
FoamFile
{
    version     2.0;
    format      ascii;
    arch        "LSB;label=32;scalar=64";
    class       polyBoundaryMesh;
    location    "constant/polyMesh";
    object      boundary;
}
// * * * * * * * * * * * * * * * * * * * * * * * * * * * * * * * * * * * * * //

8
(
    Side
    {
        type            empty;
        inGroups        1(empty);
        nFaces          6894;
        startFace       6759;
    }
    Inlet
    {
        type            patch;
        nFaces          49;
        startFace       13653;
    }
    Airfoil
    {
        type            wall;
        inGroups        1(wall);
        nFaces          0;
        startFace       13702;
    }
    Outlet
    {
        type            patch;
        nFaces          0;
        startFace       13702;
    }
    procBoundary18to2
    {
        type            processor;
        inGroups        1(processor);
        nFaces          18;
        startFace       13702;
        matchTolerance  0.0001;
        transform       unknown;
        myProcNo        18;
        neighbProcNo    2;
    }
    procBoundary18to10
    {
        type            processor;
        inGroups        1(processor);
        nFaces          55;
        startFace       13720;
        matchTolerance  0.0001;
        transform       unknown;
        myProcNo        18;
        neighbProcNo    10;
    }
    procBoundary18to34
    {
        type            processor;
        inGroups        1(processor);
        nFaces          74;
        startFace       13775;
        matchTolerance  0.0001;
        transform       unknown;
        myProcNo        18;
        neighbProcNo    34;
    }
    procBoundary18to50
    {
        type            processor;
        inGroups        1(processor);
        nFaces          74;
        startFace       13849;
        matchTolerance  0.0001;
        transform       unknown;
        myProcNo        18;
        neighbProcNo    50;
    }
)

// ************************************************************************* //
