/*--------------------------------*- C++ -*----------------------------------*\
| =========                 |                                                 |
| \\      /  F ield         | OpenFOAM: The Open Source CFD Toolbox           |
|  \\    /   O peration     | Version:  2506                                  |
|   \\  /    A nd           | Website:  www.openfoam.com                      |
|    \\/     M anipulation  |                                                 |
\*---------------------------------------------------------------------------*/
FoamFile
{
    version     2.0;
    format      ascii;
    arch        "LSB;label=32;scalar=64";
    class       polyBoundaryMesh;
    location    "constant/polyMesh";
    object      boundary;
}
// * * * * * * * * * * * * * * * * * * * * * * * * * * * * * * * * * * * * * //

8
(
    Side
    {
        type            empty;
        inGroups        1(empty);
        nFaces          61208;
        startFace       60756;
    }
    Inlet
    {
        type            patch;
        nFaces          40;
        startFace       121964;
    }
    Airfoil
    {
        type            wall;
        inGroups        1(wall);
        nFaces          121;
        startFace       122004;
    }
    Outlet
    {
        type            patch;
        nFaces          0;
        startFace       122125;
    }
    procBoundary2to1
    {
        type            processor;
        inGroups        1(processor);
        nFaces          310;
        startFace       122125;
        matchTolerance  0.0001;
        transform       unknown;
        myProcNo        2;
        neighbProcNo    1;
    }
    procBoundary2to3
    {
        type            processor;
        inGroups        1(processor);
        nFaces          410;
        startFace       122435;
        matchTolerance  0.0001;
        transform       unknown;
        myProcNo        2;
        neighbProcNo    3;
    }
    procBoundary2to9
    {
        type            processor;
        inGroups        1(processor);
        nFaces          21;
        startFace       122845;
        matchTolerance  0.0001;
        transform       unknown;
        myProcNo        2;
        neighbProcNo    9;
    }
    procBoundary2to10
    {
        type            processor;
        inGroups        1(processor);
        nFaces          2;
        startFace       122866;
        matchTolerance  0.0001;
        transform       unknown;
        myProcNo        2;
        neighbProcNo    10;
    }
)

// ************************************************************************* //
