/*--------------------------------*- C++ -*----------------------------------*\
| =========                 |                                                 |
| \\      /  F ield         | OpenFOAM: The Open Source CFD Toolbox           |
|  \\    /   O peration     | Version:  2506                                  |
|   \\  /    A nd           | Website:  www.openfoam.com                      |
|    \\/     M anipulation  |                                                 |
\*---------------------------------------------------------------------------*/
FoamFile
{
    version     2.0;
    format      ascii;
    arch        "LSB;label=32;scalar=64";
    class       polyBoundaryMesh;
    location    "constant/polyMesh";
    object      boundary;
}
// * * * * * * * * * * * * * * * * * * * * * * * * * * * * * * * * * * * * * //

11
(
    Side
    {
        type            empty;
        inGroups        1(empty);
        nFaces          6942;
        startFace       6787;
    }
    Inlet
    {
        type            patch;
        nFaces          0;
        startFace       13729;
    }
    Airfoil
    {
        type            wall;
        inGroups        1(wall);
        nFaces          0;
        startFace       13729;
    }
    Outlet
    {
        type            patch;
        nFaces          0;
        startFace       13729;
    }
    procBoundary2to8
    {
        type            processor;
        inGroups        1(processor);
        nFaces          41;
        startFace       13729;
        matchTolerance  0.0001;
        transform       unknown;
        myProcNo        2;
        neighbProcNo    8;
    }
    procBoundary2to10
    {
        type            processor;
        inGroups        1(processor);
        nFaces          41;
        startFace       13770;
        matchTolerance  0.0001;
        transform       unknown;
        myProcNo        2;
        neighbProcNo    10;
    }
    procBoundary2to18
    {
        type            processor;
        inGroups        1(processor);
        nFaces          18;
        startFace       13811;
        matchTolerance  0.0001;
        transform       unknown;
        myProcNo        2;
        neighbProcNo    18;
    }
    procBoundary2to26
    {
        type            processor;
        inGroups        1(processor);
        nFaces          72;
        startFace       13829;
        matchTolerance  0.0001;
        transform       unknown;
        myProcNo        2;
        neighbProcNo    26;
    }
    procBoundary2to32
    {
        type            processor;
        inGroups        1(processor);
        nFaces          20;
        startFace       13901;
        matchTolerance  0.0001;
        transform       unknown;
        myProcNo        2;
        neighbProcNo    32;
    }
    procBoundary2to34
    {
        type            processor;
        inGroups        1(processor);
        nFaces          78;
        startFace       13921;
        matchTolerance  0.0001;
        transform       unknown;
        myProcNo        2;
        neighbProcNo    34;
    }
    procBoundary2to40
    {
        type            processor;
        inGroups        1(processor);
        nFaces          40;
        startFace       13999;
        matchTolerance  0.0001;
        transform       unknown;
        myProcNo        2;
        neighbProcNo    40;
    }
)

// ************************************************************************* //
