/*--------------------------------*- C++ -*----------------------------------*\
| =========                 |                                                 |
| \\      /  F ield         | OpenFOAM: The Open Source CFD Toolbox           |
|  \\    /   O peration     | Version:  2506                                  |
|   \\  /    A nd           | Website:  www.openfoam.com                      |
|    \\/     M anipulation  |                                                 |
\*---------------------------------------------------------------------------*/
FoamFile
{
    version     2.0;
    format      ascii;
    arch        "LSB;label=32;scalar=64";
    class       polyBoundaryMesh;
    location    "constant/polyMesh";
    object      boundary;
}
// * * * * * * * * * * * * * * * * * * * * * * * * * * * * * * * * * * * * * //

8
(
    Side
    {
        type            empty;
        inGroups        1(empty);
        nFaces          61208;
        startFace       60762;
    }
    Inlet
    {
        type            patch;
        nFaces          36;
        startFace       121970;
    }
    Airfoil
    {
        type            wall;
        inGroups        1(wall);
        nFaces          144;
        startFace       122006;
    }
    Outlet
    {
        type            patch;
        nFaces          0;
        startFace       122150;
    }
    procBoundary1to0
    {
        type            processor;
        inGroups        1(processor);
        nFaces          392;
        startFace       122150;
        matchTolerance  0.0001;
        transform       unknown;
        myProcNo        1;
        neighbProcNo    0;
    }
    procBoundary1to2
    {
        type            processor;
        inGroups        1(processor);
        nFaces          310;
        startFace       122542;
        matchTolerance  0.0001;
        transform       unknown;
        myProcNo        1;
        neighbProcNo    2;
    }
    procBoundary1to7
    {
        type            processor;
        inGroups        1(processor);
        nFaces          3;
        startFace       122852;
        matchTolerance  0.0001;
        transform       unknown;
        myProcNo        1;
        neighbProcNo    7;
    }
    procBoundary1to8
    {
        type            processor;
        inGroups        1(processor);
        nFaces          7;
        startFace       122855;
        matchTolerance  0.0001;
        transform       unknown;
        myProcNo        1;
        neighbProcNo    8;
    }
)

// ************************************************************************* //
