/*--------------------------------*- C++ -*----------------------------------*\
| =========                 |                                                 |
| \\      /  F ield         | OpenFOAM: The Open Source CFD Toolbox           |
|  \\    /   O peration     | Version:  2506                                  |
|   \\  /    A nd           | Website:  www.openfoam.com                      |
|    \\/     M anipulation  |                                                 |
\*---------------------------------------------------------------------------*/
FoamFile
{
    version     2.0;
    format      ascii;
    arch        "LSB;label=32;scalar=64";
    class       polyBoundaryMesh;
    location    "constant/polyMesh";
    object      boundary;
}
// * * * * * * * * * * * * * * * * * * * * * * * * * * * * * * * * * * * * * //

7
(
    Side
    {
        type            empty;
        inGroups        1(empty);
        nFaces          2750;
        startFace       2661;
    }
    Inlet
    {
        type            patch;
        nFaces          9;
        startFace       5411;
    }
    Airfoil
    {
        type            wall;
        inGroups        1(wall);
        nFaces          33;
        startFace       5420;
    }
    Outlet
    {
        type            patch;
        nFaces          0;
        startFace       5453;
    }
    procBoundary1to0
    {
        type            processor;
        inGroups        1(processor);
        nFaces          53;
        startFace       5453;
        matchTolerance  0.0001;
        transform       unknown;
        myProcNo        1;
        neighbProcNo    0;
    }
    procBoundary1to2
    {
        type            processor;
        inGroups        1(processor);
        nFaces          75;
        startFace       5506;
        matchTolerance  0.0001;
        transform       unknown;
        myProcNo        1;
        neighbProcNo    2;
    }
    procBoundary1to8
    {
        type            processor;
        inGroups        1(processor);
        nFaces          8;
        startFace       5581;
        matchTolerance  0.0001;
        transform       unknown;
        myProcNo        1;
        neighbProcNo    8;
    }
)

// ************************************************************************* //
