/*--------------------------------*- C++ -*----------------------------------*\
| =========                 |                                                 |
| \\      /  F ield         | OpenFOAM: The Open Source CFD Toolbox           |
|  \\    /   O peration     | Version:  2506                                  |
|   \\  /    A nd           | Website:  www.openfoam.com                      |
|    \\/     M anipulation  |                                                 |
\*---------------------------------------------------------------------------*/
FoamFile
{
    version     2.0;
    format      ascii;
    arch        "LSB;label=32;scalar=64";
    class       polyBoundaryMesh;
    location    "constant/polyMesh";
    object      boundary;
}
// * * * * * * * * * * * * * * * * * * * * * * * * * * * * * * * * * * * * * //

7
(
    Side
    {
        type            empty;
        inGroups        1(empty);
        nFaces          6812;
        startFace       6676;
    }
    Inlet
    {
        type            patch;
        nFaces          0;
        startFace       13488;
    }
    Airfoil
    {
        type            wall;
        inGroups        1(wall);
        nFaces          0;
        startFace       13488;
    }
    Outlet
    {
        type            patch;
        nFaces          72;
        startFace       13488;
    }
    procBoundary51to3
    {
        type            processor;
        inGroups        1(processor);
        nFaces          59;
        startFace       13560;
        matchTolerance  0.0001;
        transform       unknown;
        myProcNo        51;
        neighbProcNo    3;
    }
    procBoundary51to19
    {
        type            processor;
        inGroups        1(processor);
        nFaces          77;
        startFace       13619;
        matchTolerance  0.0001;
        transform       unknown;
        myProcNo        51;
        neighbProcNo    19;
    }
    procBoundary51to54
    {
        type            processor;
        inGroups        1(processor);
        nFaces          64;
        startFace       13696;
        matchTolerance  0.0001;
        transform       unknown;
        myProcNo        51;
        neighbProcNo    54;
    }
)

// ************************************************************************* //
