/*--------------------------------*- C++ -*----------------------------------*\
| =========                 |                                                 |
| \\      /  F ield         | OpenFOAM: The Open Source CFD Toolbox           |
|  \\    /   O peration     | Version:  2506                                  |
|   \\  /    A nd           | Website:  www.openfoam.com                      |
|    \\/     M anipulation  |                                                 |
\*---------------------------------------------------------------------------*/
FoamFile
{
    version     2.0;
    format      ascii;
    arch        "LSB;label=32;scalar=64";
    class       polyBoundaryMesh;
    location    "constant/polyMesh";
    object      boundary;
}
// * * * * * * * * * * * * * * * * * * * * * * * * * * * * * * * * * * * * * //

7
(
    Side
    {
        type            empty;
        inGroups        1(empty);
        nFaces          140962;
        startFace       140327;
    }
    Inlet
    {
        type            patch;
        nFaces          29;
        startFace       281289;
    }
    Airfoil
    {
        type            wall;
        inGroups        1(wall);
        nFaces          105;
        startFace       281318;
    }
    Outlet
    {
        type            patch;
        nFaces          0;
        startFace       281423;
    }
    procBoundary9to2
    {
        type            processor;
        inGroups        1(processor);
        nFaces          138;
        startFace       281423;
        matchTolerance  0.0001;
        transform       unknown;
        myProcNo        9;
        neighbProcNo    2;
    }
    procBoundary9to8
    {
        type            processor;
        inGroups        1(processor);
        nFaces          504;
        startFace       281561;
        matchTolerance  0.0001;
        transform       unknown;
        myProcNo        9;
        neighbProcNo    8;
    }
    procBoundary9to10
    {
        type            processor;
        inGroups        1(processor);
        nFaces          494;
        startFace       282065;
        matchTolerance  0.0001;
        transform       unknown;
        myProcNo        9;
        neighbProcNo    10;
    }
)

// ************************************************************************* //
