/*--------------------------------*- C++ -*----------------------------------*\
| =========                 |                                                 |
| \\      /  F ield         | OpenFOAM: The Open Source CFD Toolbox           |
|  \\    /   O peration     | Version:  2506                                  |
|   \\  /    A nd           | Website:  www.openfoam.com                      |
|    \\/     M anipulation  |                                                 |
\*---------------------------------------------------------------------------*/
FoamFile
{
    version     2.0;
    format      ascii;
    arch        "LSB;label=32;scalar=64";
    class       polyBoundaryMesh;
    location    "constant/polyMesh";
    object      boundary;
}
// * * * * * * * * * * * * * * * * * * * * * * * * * * * * * * * * * * * * * //

7
(
    Side
    {
        type            empty;
        inGroups        1(empty);
        nFaces          27522;
        startFace       27059;
    }
    Inlet
    {
        type            patch;
        nFaces          29;
        startFace       54581;
    }
    Airfoil
    {
        type            wall;
        inGroups        1(wall);
        nFaces          109;
        startFace       54610;
    }
    Outlet
    {
        type            patch;
        nFaces          0;
        startFace       54719;
    }
    procBoundary9to2
    {
        type            processor;
        inGroups        1(processor);
        nFaces          40;
        startFace       54719;
        matchTolerance  0.0001;
        transform       unknown;
        myProcNo        9;
        neighbProcNo    2;
    }
    procBoundary9to8
    {
        type            processor;
        inGroups        1(processor);
        nFaces          398;
        startFace       54759;
        matchTolerance  0.0001;
        transform       unknown;
        myProcNo        9;
        neighbProcNo    8;
    }
    procBoundary9to10
    {
        type            processor;
        inGroups        1(processor);
        nFaces          350;
        startFace       55157;
        matchTolerance  0.0001;
        transform       unknown;
        myProcNo        9;
        neighbProcNo    10;
    }
)

// ************************************************************************* //
