/*--------------------------------*- C++ -*----------------------------------*\
| =========                 |                                                 |
| \\      /  F ield         | OpenFOAM: The Open Source CFD Toolbox           |
|  \\    /   O peration     | Version:  2506                                  |
|   \\  /    A nd           | Website:  www.openfoam.com                      |
|    \\/     M anipulation  |                                                 |
\*---------------------------------------------------------------------------*/
FoamFile
{
    version     2.0;
    format      ascii;
    arch        "LSB;label=32;scalar=64";
    class       polyBoundaryMesh;
    location    "constant/polyMesh";
    object      boundary;
}
// * * * * * * * * * * * * * * * * * * * * * * * * * * * * * * * * * * * * * //

7
(
    Side
    {
        type            empty;
        inGroups        1(empty);
        nFaces          27522;
        startFace       27063;
    }
    Inlet
    {
        type            patch;
        nFaces          341;
        startFace       54585;
    }
    Airfoil
    {
        type            wall;
        inGroups        1(wall);
        nFaces          0;
        startFace       54926;
    }
    Outlet
    {
        type            patch;
        nFaces          0;
        startFace       54926;
    }
    procBoundary0to1
    {
        type            processor;
        inGroups        1(processor);
        nFaces          445;
        startFace       54926;
        matchTolerance  0.0001;
        transform       unknown;
        myProcNo        0;
        neighbProcNo    1;
    }
    procBoundary0to7
    {
        type            processor;
        inGroups        1(processor);
        nFaces          109;
        startFace       55371;
        matchTolerance  0.0001;
        transform       unknown;
        myProcNo        0;
        neighbProcNo    7;
    }
    procBoundary0to8
    {
        type            processor;
        inGroups        1(processor);
        nFaces          23;
        startFace       55480;
        matchTolerance  0.0001;
        transform       unknown;
        myProcNo        0;
        neighbProcNo    8;
    }
)

// ************************************************************************* //
