/*--------------------------------*- C++ -*----------------------------------*\
| =========                 |                                                 |
| \\      /  F ield         | OpenFOAM: The Open Source CFD Toolbox           |
|  \\    /   O peration     | Version:  2506                                  |
|   \\  /    A nd           | Website:  www.openfoam.com                      |
|    \\/     M anipulation  |                                                 |
\*---------------------------------------------------------------------------*/
FoamFile
{
    version     2.0;
    format      ascii;
    arch        "LSB;label=32;scalar=64";
    class       polyBoundaryMesh;
    location    "constant/polyMesh";
    object      boundary;
}
// * * * * * * * * * * * * * * * * * * * * * * * * * * * * * * * * * * * * * //

6
(
    Side
    {
        type            empty;
        inGroups        1(empty);
        nFaces          61208;
        startFace       60748;
    }
    Inlet
    {
        type            patch;
        nFaces          160;
        startFace       121956;
    }
    Airfoil
    {
        type            wall;
        inGroups        1(wall);
        nFaces          68;
        startFace       122116;
    }
    Outlet
    {
        type            patch;
        nFaces          0;
        startFace       122184;
    }
    procBoundary0to1
    {
        type            processor;
        inGroups        1(processor);
        nFaces          392;
        startFace       122184;
        matchTolerance  0.0001;
        transform       unknown;
        myProcNo        0;
        neighbProcNo    1;
    }
    procBoundary0to7
    {
        type            processor;
        inGroups        1(processor);
        nFaces          300;
        startFace       122576;
        matchTolerance  0.0001;
        transform       unknown;
        myProcNo        0;
        neighbProcNo    7;
    }
)

// ************************************************************************* //
