/*--------------------------------*- C++ -*----------------------------------*\
| =========                 |                                                 |
| \\      /  F ield         | OpenFOAM: The Open Source CFD Toolbox           |
|  \\    /   O peration     | Version:  2506                                  |
|   \\  /    A nd           | Website:  www.openfoam.com                      |
|    \\/     M anipulation  |                                                 |
\*---------------------------------------------------------------------------*/
FoamFile
{
    version     2.0;
    format      ascii;
    arch        "LSB;label=32;scalar=64";
    class       polyBoundaryMesh;
    location    "constant/polyMesh";
    object      boundary;
}
// * * * * * * * * * * * * * * * * * * * * * * * * * * * * * * * * * * * * * //

8
(
    Side
    {
        type            empty;
        inGroups        1(empty);
        nFaces          6928;
        startFace       6785;
    }
    Inlet
    {
        type            patch;
        nFaces          0;
        startFace       13713;
    }
    Airfoil
    {
        type            wall;
        inGroups        1(wall);
        nFaces          56;
        startFace       13713;
    }
    Outlet
    {
        type            patch;
        nFaces          0;
        startFace       13769;
    }
    procBoundary40to2
    {
        type            processor;
        inGroups        1(processor);
        nFaces          40;
        startFace       13769;
        matchTolerance  0.0001;
        transform       unknown;
        myProcNo        40;
        neighbProcNo    2;
    }
    procBoundary40to8
    {
        type            processor;
        inGroups        1(processor);
        nFaces          93;
        startFace       13809;
        matchTolerance  0.0001;
        transform       unknown;
        myProcNo        40;
        neighbProcNo    8;
    }
    procBoundary40to24
    {
        type            processor;
        inGroups        1(processor);
        nFaces          34;
        startFace       13902;
        matchTolerance  0.0001;
        transform       unknown;
        myProcNo        40;
        neighbProcNo    24;
    }
    procBoundary40to26
    {
        type            processor;
        inGroups        1(processor);
        nFaces          63;
        startFace       13936;
        matchTolerance  0.0001;
        transform       unknown;
        myProcNo        40;
        neighbProcNo    26;
    }
)

// ************************************************************************* //
