/*--------------------------------*- C++ -*----------------------------------*\
| =========                 |                                                 |
| \\      /  F ield         | OpenFOAM: The Open Source CFD Toolbox           |
|  \\    /   O peration     | Version:  2506                                  |
|   \\  /    A nd           | Website:  www.openfoam.com                      |
|    \\/     M anipulation  |                                                 |
\*---------------------------------------------------------------------------*/
FoamFile
{
    version     2.0;
    format      ascii;
    arch        "LSB;label=32;scalar=64";
    class       polyBoundaryMesh;
    location    "constant/polyMesh";
    object      boundary;
}
// * * * * * * * * * * * * * * * * * * * * * * * * * * * * * * * * * * * * * //

10
(
    Side
    {
        type            empty;
        inGroups        1(empty);
        nFaces          6938;
        startFace       6800;
    }
    Inlet
    {
        type            patch;
        nFaces          0;
        startFace       13738;
    }
    Airfoil
    {
        type            wall;
        inGroups        1(wall);
        nFaces          0;
        startFace       13738;
    }
    Outlet
    {
        type            patch;
        nFaces          0;
        startFace       13738;
    }
    procBoundary16to0
    {
        type            processor;
        inGroups        1(processor);
        nFaces          38;
        startFace       13738;
        matchTolerance  0.0001;
        transform       unknown;
        myProcNo        16;
        neighbProcNo    0;
    }
    procBoundary16to8
    {
        type            processor;
        inGroups        1(processor);
        nFaces          49;
        startFace       13776;
        matchTolerance  0.0001;
        transform       unknown;
        myProcNo        16;
        neighbProcNo    8;
    }
    procBoundary16to24
    {
        type            processor;
        inGroups        1(processor);
        nFaces          33;
        startFace       13825;
        matchTolerance  0.0001;
        transform       unknown;
        myProcNo        16;
        neighbProcNo    24;
    }
    procBoundary16to28
    {
        type            processor;
        inGroups        1(processor);
        nFaces          31;
        startFace       13858;
        matchTolerance  0.0001;
        transform       unknown;
        myProcNo        16;
        neighbProcNo    28;
    }
    procBoundary16to36
    {
        type            processor;
        inGroups        1(processor);
        nFaces          57;
        startFace       13889;
        matchTolerance  0.0001;
        transform       unknown;
        myProcNo        16;
        neighbProcNo    36;
    }
    procBoundary16to48
    {
        type            processor;
        inGroups        1(processor);
        nFaces          68;
        startFace       13946;
        matchTolerance  0.0001;
        transform       unknown;
        myProcNo        16;
        neighbProcNo    48;
    }
)

// ************************************************************************* //
