/*--------------------------------*- C++ -*----------------------------------*\
| =========                 |                                                 |
| \\      /  F ield         | OpenFOAM: The Open Source CFD Toolbox           |
|  \\    /   O peration     | Version:  2506                                  |
|   \\  /    A nd           | Website:  www.openfoam.com                      |
|    \\/     M anipulation  |                                                 |
\*---------------------------------------------------------------------------*/
FoamFile
{
    version     2.0;
    format      ascii;
    arch        "LSB;label=32;scalar=64";
    class       polyBoundaryMesh;
    location    "constant/polyMesh";
    object      boundary;
}
// * * * * * * * * * * * * * * * * * * * * * * * * * * * * * * * * * * * * * //

10
(
    Side
    {
        type            empty;
        inGroups        1(empty);
        nFaces          6904;
        startFace       6758;
    }
    Inlet
    {
        type            patch;
        nFaces          0;
        startFace       13662;
    }
    Airfoil
    {
        type            wall;
        inGroups        1(wall);
        nFaces          0;
        startFace       13662;
    }
    Outlet
    {
        type            patch;
        nFaces          0;
        startFace       13662;
    }
    procBoundary39to7
    {
        type            processor;
        inGroups        1(processor);
        nFaces          84;
        startFace       13662;
        matchTolerance  0.0001;
        transform       unknown;
        myProcNo        39;
        neighbProcNo    7;
    }
    procBoundary39to21
    {
        type            processor;
        inGroups        1(processor);
        nFaces          45;
        startFace       13746;
        matchTolerance  0.0001;
        transform       unknown;
        myProcNo        39;
        neighbProcNo    21;
    }
    procBoundary39to29
    {
        type            processor;
        inGroups        1(processor);
        nFaces          20;
        startFace       13791;
        matchTolerance  0.0001;
        transform       unknown;
        myProcNo        39;
        neighbProcNo    29;
    }
    procBoundary39to31
    {
        type            processor;
        inGroups        1(processor);
        nFaces          63;
        startFace       13811;
        matchTolerance  0.0001;
        transform       unknown;
        myProcNo        39;
        neighbProcNo    31;
    }
    procBoundary39to47
    {
        type            processor;
        inGroups        1(processor);
        nFaces          27;
        startFace       13874;
        matchTolerance  0.0001;
        transform       unknown;
        myProcNo        39;
        neighbProcNo    47;
    }
    procBoundary39to55
    {
        type            processor;
        inGroups        1(processor);
        nFaces          53;
        startFace       13901;
        matchTolerance  0.0001;
        transform       unknown;
        myProcNo        39;
        neighbProcNo    55;
    }
)

// ************************************************************************* //
