/*--------------------------------*- C++ -*----------------------------------*\
| =========                 |                                                 |
| \\      /  F ield         | OpenFOAM: The Open Source CFD Toolbox           |
|  \\    /   O peration     | Version:  2506                                  |
|   \\  /    A nd           | Website:  www.openfoam.com                      |
|    \\/     M anipulation  |                                                 |
\*---------------------------------------------------------------------------*/
FoamFile
{
    version     2.0;
    format      ascii;
    arch        "LSB;label=32;scalar=64";
    class       polyBoundaryMesh;
    location    "constant/polyMesh";
    object      boundary;
}
// * * * * * * * * * * * * * * * * * * * * * * * * * * * * * * * * * * * * * //

7
(
    Side
    {
        type            empty;
        inGroups        1(empty);
        nFaces          2752;
        startFace       2663;
    }
    Inlet
    {
        type            patch;
        nFaces          9;
        startFace       5415;
    }
    Airfoil
    {
        type            wall;
        inGroups        1(wall);
        nFaces          33;
        startFace       5424;
    }
    Outlet
    {
        type            patch;
        nFaces          0;
        startFace       5457;
    }
    procBoundary8to1
    {
        type            processor;
        inGroups        1(processor);
        nFaces          8;
        startFace       5457;
        matchTolerance  0.0001;
        transform       unknown;
        myProcNo        8;
        neighbProcNo    1;
    }
    procBoundary8to7
    {
        type            processor;
        inGroups        1(processor);
        nFaces          53;
        startFace       5465;
        matchTolerance  0.0001;
        transform       unknown;
        myProcNo        8;
        neighbProcNo    7;
    }
    procBoundary8to9
    {
        type            processor;
        inGroups        1(processor);
        nFaces          75;
        startFace       5518;
        matchTolerance  0.0001;
        transform       unknown;
        myProcNo        8;
        neighbProcNo    9;
    }
)

// ************************************************************************* //
