/*--------------------------------*- C++ -*----------------------------------*\
| =========                 |                                                 |
| \\      /  F ield         | OpenFOAM: The Open Source CFD Toolbox           |
|  \\    /   O peration     | Version:  2506                                  |
|   \\  /    A nd           | Website:  www.openfoam.com                      |
|    \\/     M anipulation  |                                                 |
\*---------------------------------------------------------------------------*/
FoamFile
{
    version     2.0;
    format      ascii;
    arch        "LSB;label=32;scalar=64";
    class       polyBoundaryMesh;
    location    "constant/polyMesh";
    object      boundary;
}
// * * * * * * * * * * * * * * * * * * * * * * * * * * * * * * * * * * * * * //

7
(
    Side
    {
        type            empty;
        inGroups        1(empty);
        nFaces          61210;
        startFace       60771;
    }
    Inlet
    {
        type            patch;
        nFaces          36;
        startFace       121981;
    }
    Airfoil
    {
        type            wall;
        inGroups        1(wall);
        nFaces          136;
        startFace       122017;
    }
    Outlet
    {
        type            patch;
        nFaces          0;
        startFace       122153;
    }
    procBoundary8to1
    {
        type            processor;
        inGroups        1(processor);
        nFaces          7;
        startFace       122153;
        matchTolerance  0.0001;
        transform       unknown;
        myProcNo        8;
        neighbProcNo    1;
    }
    procBoundary8to7
    {
        type            processor;
        inGroups        1(processor);
        nFaces          388;
        startFace       122160;
        matchTolerance  0.0001;
        transform       unknown;
        myProcNo        8;
        neighbProcNo    7;
    }
    procBoundary8to9
    {
        type            processor;
        inGroups        1(processor);
        nFaces          311;
        startFace       122548;
        matchTolerance  0.0001;
        transform       unknown;
        myProcNo        8;
        neighbProcNo    9;
    }
)

// ************************************************************************* //
