/*--------------------------------*- C++ -*----------------------------------*\
| =========                 |                                                 |
| \\      /  F ield         | OpenFOAM: The Open Source CFD Toolbox           |
|  \\    /   O peration     | Version:  2506                                  |
|   \\  /    A nd           | Website:  www.openfoam.com                      |
|    \\/     M anipulation  |                                                 |
\*---------------------------------------------------------------------------*/
FoamFile
{
    version     2.0;
    format      ascii;
    arch        "LSB;label=32;scalar=64";
    class       polyBoundaryMesh;
    location    "constant/polyMesh";
    object      boundary;
}
// * * * * * * * * * * * * * * * * * * * * * * * * * * * * * * * * * * * * * //

7
(
    Side
    {
        type            empty;
        inGroups        1(empty);
        nFaces          140962;
        startFace       140340;
    }
    Inlet
    {
        type            patch;
        nFaces          115;
        startFace       281302;
    }
    Airfoil
    {
        type            wall;
        inGroups        1(wall);
        nFaces          0;
        startFace       281417;
    }
    Outlet
    {
        type            patch;
        nFaces          401;
        startFace       281417;
    }
    procBoundary13to5
    {
        type            processor;
        inGroups        1(processor);
        nFaces          16;
        startFace       281818;
        matchTolerance  0.0001;
        transform       unknown;
        myProcNo        13;
        neighbProcNo    5;
    }
    procBoundary13to6
    {
        type            processor;
        inGroups        1(processor);
        nFaces          219;
        startFace       281834;
        matchTolerance  0.0001;
        transform       unknown;
        myProcNo        13;
        neighbProcNo    6;
    }
    procBoundary13to12
    {
        type            processor;
        inGroups        1(processor);
        nFaces          493;
        startFace       282053;
        matchTolerance  0.0001;
        transform       unknown;
        myProcNo        13;
        neighbProcNo    12;
    }
)

// ************************************************************************* //
