/*--------------------------------*- C++ -*----------------------------------*\
| =========                 |                                                 |
| \\      /  F ield         | OpenFOAM: The Open Source CFD Toolbox           |
|  \\    /   O peration     | Version:  2506                                  |
|   \\  /    A nd           | Website:  www.openfoam.com                      |
|    \\/     M anipulation  |                                                 |
\*---------------------------------------------------------------------------*/
FoamFile
{
    version     2.0;
    format      ascii;
    arch        "LSB;label=32;scalar=64";
    class       polyBoundaryMesh;
    location    "constant/polyMesh";
    object      boundary;
}
// * * * * * * * * * * * * * * * * * * * * * * * * * * * * * * * * * * * * * //

9
(
    Side
    {
        type            empty;
        inGroups        1(empty);
        nFaces          6830;
        startFace       6681;
    }
    Inlet
    {
        type            patch;
        nFaces          0;
        startFace       13511;
    }
    Airfoil
    {
        type            wall;
        inGroups        1(wall);
        nFaces          0;
        startFace       13511;
    }
    Outlet
    {
        type            patch;
        nFaces          0;
        startFace       13511;
    }
    procBoundary14to10
    {
        type            processor;
        inGroups        1(processor);
        nFaces          24;
        startFace       13511;
        matchTolerance  0.0001;
        transform       unknown;
        myProcNo        14;
        neighbProcNo    10;
    }
    procBoundary14to22
    {
        type            processor;
        inGroups        1(processor);
        nFaces          52;
        startFace       13535;
        matchTolerance  0.0001;
        transform       unknown;
        myProcNo        14;
        neighbProcNo    22;
    }
    procBoundary14to30
    {
        type            processor;
        inGroups        1(processor);
        nFaces          65;
        startFace       13587;
        matchTolerance  0.0001;
        transform       unknown;
        myProcNo        14;
        neighbProcNo    30;
    }
    procBoundary14to46
    {
        type            processor;
        inGroups        1(processor);
        nFaces          91;
        startFace       13652;
        matchTolerance  0.0001;
        transform       unknown;
        myProcNo        14;
        neighbProcNo    46;
    }
    procBoundary14to50
    {
        type            processor;
        inGroups        1(processor);
        nFaces          66;
        startFace       13743;
        matchTolerance  0.0001;
        transform       unknown;
        myProcNo        14;
        neighbProcNo    50;
    }
)

// ************************************************************************* //
