/*--------------------------------*- C++ -*----------------------------------*\
| =========                 |                                                 |
| \\      /  F ield         | OpenFOAM: The Open Source CFD Toolbox           |
|  \\    /   O peration     | Version:  2506                                  |
|   \\  /    A nd           | Website:  www.openfoam.com                      |
|    \\/     M anipulation  |                                                 |
\*---------------------------------------------------------------------------*/
FoamFile
{
    version     2.0;
    format      ascii;
    arch        "LSB;label=32;scalar=64";
    class       polyBoundaryMesh;
    location    "constant/polyMesh";
    object      boundary;
}
// * * * * * * * * * * * * * * * * * * * * * * * * * * * * * * * * * * * * * //

8
(
    Side
    {
        type            empty;
        inGroups        1(empty);
        nFaces          27522;
        startFace       27179;
    }
    Inlet
    {
        type            patch;
        nFaces          33;
        startFace       54701;
    }
    Airfoil
    {
        type            wall;
        inGroups        1(wall);
        nFaces          107;
        startFace       54734;
    }
    Outlet
    {
        type            patch;
        nFaces          0;
        startFace       54841;
    }
    procBoundary3to2
    {
        type            processor;
        inGroups        1(processor);
        nFaces          262;
        startFace       54841;
        matchTolerance  0.0001;
        transform       unknown;
        myProcNo        3;
        neighbProcNo    2;
    }
    procBoundary3to4
    {
        type            processor;
        inGroups        1(processor);
        nFaces          194;
        startFace       55103;
        matchTolerance  0.0001;
        transform       unknown;
        myProcNo        3;
        neighbProcNo    4;
    }
    procBoundary3to10
    {
        type            processor;
        inGroups        1(processor);
        nFaces          48;
        startFace       55297;
        matchTolerance  0.0001;
        transform       unknown;
        myProcNo        3;
        neighbProcNo    10;
    }
    procBoundary3to11
    {
        type            processor;
        inGroups        1(processor);
        nFaces          42;
        startFace       55345;
        matchTolerance  0.0001;
        transform       unknown;
        myProcNo        3;
        neighbProcNo    11;
    }
)

// ************************************************************************* //
