/*--------------------------------*- C++ -*----------------------------------*\
  =========                 |
  \\      /  F ield         | OpenFOAM: The Open Source CFD Toolbox
   \\    /   O peration     | Website:  https://openfoam.org
    \\  /    A nd           | Version:  13
     \\/     M anipulation  |
\*---------------------------------------------------------------------------*/
FoamFile
{
    format      ascii;
    class       polyBoundaryMesh;
    location    "constant/polyMesh";
    object      boundary;
}
// * * * * * * * * * * * * * * * * * * * * * * * * * * * * * * * * * * * * * //

4
(
    Side
    {
        type            empty;
        nFaces          38514;
        startFace       38210;
    }
    Inlet
    {
        type            patch;
        physicalType    patch;
        nFaces          393;
        startFace       76724;
    }
    Airfoil
    {
        type            wall;
        physicalType    wall;
        nFaces          117;
        startFace       77117;
    }
    Outlet
    {
        type            patch;
        physicalType    patch;
        nFaces          98;
        startFace       77234;
    }
)

// ************************************************************************* //
