/*--------------------------------*- C++ -*----------------------------------*\
| =========                 |                                                 |
| \\      /  F ield         | OpenFOAM: The Open Source CFD Toolbox           |
|  \\    /   O peration     | Version:  2506                                  |
|   \\  /    A nd           | Website:  www.openfoam.com                      |
|    \\/     M anipulation  |                                                 |
\*---------------------------------------------------------------------------*/
FoamFile
{
    version     2.0;
    format      ascii;
    arch        "LSB;label=32;scalar=64";
    class       polyBoundaryMesh;
    location    "constant/polyMesh";
    object      boundary;
}
// * * * * * * * * * * * * * * * * * * * * * * * * * * * * * * * * * * * * * //

4
(
    Side
    {
        type            empty;
        nFaces          385314;
        startFace       383995;
    }
    Inlet
    {
        type            patch;
        nFaces          1293;
        startFace       769309;
    }
    Airfoil
    {
        type            wall;
        nFaces          1047;
        startFace       770602;
    }
    Outlet
    {
        type            patch;
        nFaces          298;
        startFace       771649;
    }
)

// ************************************************************************* //
