/*--------------------------------*- C++ -*----------------------------------*\
| =========                 |                                                 |
| \\      /  F ield         | OpenFOAM: The Open Source CFD Toolbox           |
|  \\    /   O peration     | Version:  2506                                  |
|   \\  /    A nd           | Website:  www.openfoam.com                      |
|    \\/     M anipulation  |                                                 |
\*---------------------------------------------------------------------------*/
FoamFile
{
    version     2.0;
    format      ascii;
    arch        "LSB;label=32;scalar=64";
    class       polyBoundaryMesh;
    location    "constant/polyMesh";
    object      boundary;
}
// * * * * * * * * * * * * * * * * * * * * * * * * * * * * * * * * * * * * * //

4
(
    Side
    {
        type            empty;
        nFaces          856934;
        startFace       855590;
    }
    Inlet
    {
        type            patch;
        nFaces          1433;
        startFace       1712524;
    }
    Airfoil
    {
        type            wall;
        nFaces          657;
        startFace       1713957;
    }
    Outlet
    {
        type            patch;
        nFaces          598;
        startFace       1714614;
    }
)

// ************************************************************************* //
