/*--------------------------------*- C++ -*----------------------------------*\
| =========                 |                                                 |
| \\      /  F ield         | OpenFOAM: The Open Source CFD Toolbox           |
|  \\    /   O peration     | Version:  2506                                  |
|   \\  /    A nd           | Website:  www.openfoam.com                      |
|    \\/     M anipulation  |                                                 |
\*---------------------------------------------------------------------------*/
FoamFile
{
    version     2.0;
    format      ascii;
    arch        "LSB;label=32;scalar=64";
    class       polyBoundaryMesh;
    location    "constant/polyMesh";
    object      boundary;
}
// * * * * * * * * * * * * * * * * * * * * * * * * * * * * * * * * * * * * * //

4
(
    Side
    {
        type            empty;
        nFaces          38514;
        startFace       38210;
    }
    Inlet
    {
        type            patch;
        nFaces          393;
        startFace       76724;
    }
    Airfoil
    {
        type            wall;
        nFaces          117;
        startFace       77117;
    }
    Outlet
    {
        type            patch;
        nFaces          98;
        startFace       77234;
    }
)

// ************************************************************************* //
