/*--------------------------------*- C++ -*----------------------------------*\
| =========                 |                                                 |
| \\      /  F ield         | OpenFOAM: The Open Source CFD Toolbox           |
|  \\    /   O peration     | Version:  2506                                  |
|   \\  /    A nd           | Website:  www.openfoam.com                      |
|    \\/     M anipulation  |                                                 |
\*---------------------------------------------------------------------------*/
FoamFile
{
    version     2.0;
    format      ascii;
    arch        "LSB;label=32;scalar=64";
    class       polyBoundaryMesh;
    location    "constant/polyMesh";
    object      boundary;
}
// * * * * * * * * * * * * * * * * * * * * * * * * * * * * * * * * * * * * * //

4
(
    Side
    {
        type            empty;
        nFaces          630924;
        startFace       626720;
    }
    Inlet
    {
        type            patch;
        nFaces          4263;
        startFace       1257644;
    }
    Airfoil
    {
        type            wall;
        nFaces          3997;
        startFace       1261907;
    }
    Outlet
    {
        type            patch;
        nFaces          148;
        startFace       1265904;
    }
)

// ************************************************************************* //
