/*--------------------------------*- C++ -*----------------------------------*\
| =========                 |                                                 |
| \\      /  F ield         | OpenFOAM: The Open Source CFD Toolbox           |
|  \\    /   O peration     | Version:  2506                                  |
|   \\  /    A nd           | Website:  www.openfoam.com                      |
|    \\/     M anipulation  |                                                 |
\*---------------------------------------------------------------------------*/
FoamFile
{
    version     2.0;
    format      ascii;
    arch        "LSB;label=32;scalar=64";
    class       polyBoundaryMesh;
    location    "constant/polyMesh";
    object      boundary;
}
// * * * * * * * * * * * * * * * * * * * * * * * * * * * * * * * * * * * * * //

4
(
    Side
    {
        type            empty;
        nFaces          1973454;
        startFace       1971380;
    }
    Inlet
    {
        type            patch;
        nFaces          2473;
        startFace       3944834;
    }
    Airfoil
    {
        type            wall;
        nFaces          877;
        startFace       3947307;
    }
    Outlet
    {
        type            patch;
        nFaces          798;
        startFace       3948184;
    }
)

// ************************************************************************* //
