/*--------------------------------*- C++ -*----------------------------------*\
| =========                 |                                                 |
| \\      /  F ield         | OpenFOAM: The Open Source CFD Toolbox           |
|  \\    /   O peration     | Version:  2506                                  |
|   \\  /    A nd           | Website:  www.openfoam.com                      |
|    \\/     M anipulation  |                                                 |
\*---------------------------------------------------------------------------*/
FoamFile
{
    version     2.0;
    format      ascii;
    arch        "LSB;label=32;scalar=64";
    class       polyBoundaryMesh;
    location    "constant/polyMesh";
    object      boundary;
}
// * * * * * * * * * * * * * * * * * * * * * * * * * * * * * * * * * * * * * //

8
(
    Side
    {
        type            empty;
        inGroups        1(empty);
        nFaces          6878;
        startFace       6744;
    }
    Inlet
    {
        type            patch;
        nFaces          0;
        startFace       13622;
    }
    Airfoil
    {
        type            wall;
        inGroups        1(wall);
        nFaces          50;
        startFace       13622;
    }
    Outlet
    {
        type            patch;
        nFaces          0;
        startFace       13672;
    }
    procBoundary25to1
    {
        type            processor;
        inGroups        1(processor);
        nFaces          54;
        startFace       13672;
        matchTolerance  0.0001;
        transform       unknown;
        myProcNo        25;
        neighbProcNo    1;
    }
    procBoundary25to9
    {
        type            processor;
        inGroups        1(processor);
        nFaces          74;
        startFace       13726;
        matchTolerance  0.0001;
        transform       unknown;
        myProcNo        25;
        neighbProcNo    9;
    }
    procBoundary25to49
    {
        type            processor;
        inGroups        1(processor);
        nFaces          17;
        startFace       13800;
        matchTolerance  0.0001;
        transform       unknown;
        myProcNo        25;
        neighbProcNo    49;
    }
    procBoundary25to52
    {
        type            processor;
        inGroups        1(processor);
        nFaces          73;
        startFace       13817;
        matchTolerance  0.0001;
        transform       unknown;
        myProcNo        25;
        neighbProcNo    52;
    }
)

// ************************************************************************* //
