/*--------------------------------*- C++ -*----------------------------------*\
| =========                 |                                                 |
| \\      /  F ield         | OpenFOAM: The Open Source CFD Toolbox           |
|  \\    /   O peration     | Version:  v13                                   |
|   \\  /    A nd           | Website:  www.openfoam.com                      |
|    \\/     M anipulation  |                                                 |
\*---------------------------------------------------------------------------*/
FoamFile
{
    version     2.0;
    format      ascii;
    class       dictionary;
    location    "system";
    object      controlDict;
}
// * * * * * * * * * * * * * * * * * * * * * * * * * * * * * * * * * * * //

application     rhoPimpleFoam;

startFrom       startTime;
startTime       0;

stopAt          endTime;
endTime         3;

deltaT          2e-5;

writeControl    adjustable;

writeInterval   0.001;

purgeWrite      10;

writeFormat     ascii;

writePrecision   8;

writeCompression off;

timeFormat      general;

timePrecision   6;

runTimeModifiable true;


adjustTimeStep  yes;

maxCo           0.5;

// ************************************************************************* //


functions
{
    forces
    {
        type            forces;
        libs            (forces);
        writeControl    timeStep;
        writeInterval   1;        

        patches         ("Airfoil"); 


        p               p;
        U               U;
        rho             rho;


        CofR            (0.25 0 0);
    }

    fieldAverage1
    {
        type            fieldAverage;
        libs            (fieldFunctionObjects);
        writeControl    timeStep;
        writeInterval   100; // Average and write at the same time as the main solution
        timeStart       500; // Start averaging when the solution is more stable
        fields
        (
            U { mean on; prime2Mean off; base time; }
            p { mean on; prime2Mean off; base time; }
        );
    }
}

// ************************************************************************* //