/*--------------------------------*- C++ -*----------------------------------*\
| =========                 |                                                 |
| \\      /  F ield         | OpenFOAM: The Open Source CFD Toolbox           |
|  \\    /   O peration     | Version:  v2006                                 |
|   \\  /    A nd           | Website:  www.openfoam.com                      |
|    \\/     M anipulation  |                                                 |
\*---------------------------------------------------------------------------*/
FoamFile
{
    version     2.0;
    format      ascii;
    class       dictionary;
    location    "system";
    object      decomposeParDict;
}
// * * * * * * * * * * * * * * * * * * * * * * * * * * * * * * * * * * * * * //

numberOfSubdomains  56;

method          scotch;

// Optional: tuning for load balancing
scotchCoeffs
{
    processorWeights (1 1 1 1 1 1 1 1 1 1 1 1 1 1 1 1
                      1 1 1 1 1 1 1 1 1 1 1 1 1 1 1 1
                      1 1 1 1 1 1 1 1 1 1 1 1 1 1 1 1
                      1 1 1 1 1 1 1 1);
}

distributed     no;
roots           ( );

// ************************************************************************* //
