/*--------------------------------*- C++ -*----------------------------------*\
| =========                 |                                                 |
| \\      /  F ield         | OpenFOAM: The Open Source CFD Toolbox           |
|  \\    /   O peration     | Version:  2506                                  |
|   \\  /    A nd           | Website:  www.openfoam.com                      |
|    \\/     M anipulation  |                                                 |
\*---------------------------------------------------------------------------*/
FoamFile
{
    version     2.0;
    format      ascii;
    arch        "LSB;label=32;scalar=64";
    class       polyBoundaryMesh;
    location    "constant/polyMesh";
    object      boundary;
}
// * * * * * * * * * * * * * * * * * * * * * * * * * * * * * * * * * * * * * //

8
(
    Side
    {
        type            empty;
        inGroups        1(empty);
        nFaces          140962;
        startFace       140282;
    }
    Inlet
    {
        type            patch;
        nFaces          89;
        startFace       281244;
    }
    Airfoil
    {
        type            wall;
        inGroups        1(wall);
        nFaces          0;
        startFace       281333;
    }
    Outlet
    {
        type            patch;
        nFaces          0;
        startFace       281333;
    }
    procBoundary10to2
    {
        type            processor;
        inGroups        1(processor);
        nFaces          15;
        startFace       281333;
        matchTolerance  0.0001;
        transform       unknown;
        myProcNo        10;
        neighbProcNo    2;
    }
    procBoundary10to3
    {
        type            processor;
        inGroups        1(processor);
        nFaces          192;
        startFace       281348;
        matchTolerance  0.0001;
        transform       unknown;
        myProcNo        10;
        neighbProcNo    3;
    }
    procBoundary10to9
    {
        type            processor;
        inGroups        1(processor);
        nFaces          494;
        startFace       281540;
        matchTolerance  0.0001;
        transform       unknown;
        myProcNo        10;
        neighbProcNo    9;
    }
    procBoundary10to11
    {
        type            processor;
        inGroups        1(processor);
        nFaces          570;
        startFace       282034;
        matchTolerance  0.0001;
        transform       unknown;
        myProcNo        10;
        neighbProcNo    11;
    }
)

// ************************************************************************* //
