/*--------------------------------*- C++ -*----------------------------------*\
| =========                 |                                                 |
| \\      /  F ield         | OpenFOAM: The Open Source CFD Toolbox           |
|  \\    /   O peration     | Version:  2506                                  |
|   \\  /    A nd           | Website:  www.openfoam.com                      |
|    \\/     M anipulation  |                                                 |
\*---------------------------------------------------------------------------*/
FoamFile
{
    version     2.0;
    format      ascii;
    arch        "LSB;label=32;scalar=64";
    class       polyBoundaryMesh;
    location    "constant/polyMesh";
    object      boundary;
}
// * * * * * * * * * * * * * * * * * * * * * * * * * * * * * * * * * * * * * //

9
(
    Side
    {
        type            empty;
        inGroups        1(empty);
        nFaces          6888;
        startFace       6741;
    }
    Inlet
    {
        type            patch;
        nFaces          51;
        startFace       13629;
    }
    Airfoil
    {
        type            wall;
        inGroups        1(wall);
        nFaces          0;
        startFace       13680;
    }
    Outlet
    {
        type            patch;
        nFaces          0;
        startFace       13680;
    }
    procBoundary29to7
    {
        type            processor;
        inGroups        1(processor);
        nFaces          72;
        startFace       13680;
        matchTolerance  0.0001;
        transform       unknown;
        myProcNo        29;
        neighbProcNo    7;
    }
    procBoundary29to13
    {
        type            processor;
        inGroups        1(processor);
        nFaces          13;
        startFace       13752;
        matchTolerance  0.0001;
        transform       unknown;
        myProcNo        29;
        neighbProcNo    13;
    }
    procBoundary29to21
    {
        type            processor;
        inGroups        1(processor);
        nFaces          64;
        startFace       13765;
        matchTolerance  0.0001;
        transform       unknown;
        myProcNo        29;
        neighbProcNo    21;
    }
    procBoundary29to39
    {
        type            processor;
        inGroups        1(processor);
        nFaces          20;
        startFace       13829;
        matchTolerance  0.0001;
        transform       unknown;
        myProcNo        29;
        neighbProcNo    39;
    }
    procBoundary29to45
    {
        type            processor;
        inGroups        1(processor);
        nFaces          74;
        startFace       13849;
        matchTolerance  0.0001;
        transform       unknown;
        myProcNo        29;
        neighbProcNo    45;
    }
)

// ************************************************************************* //
