/*--------------------------------*- C++ -*----------------------------------*\
| =========                 |                                                 |
| \\      /  F ield         | OpenFOAM: The Open Source CFD Toolbox           |
|  \\    /   O peration     | Version:  2506                                  |
|   \\  /    A nd           | Website:  www.openfoam.com                      |
|    \\/     M anipulation  |                                                 |
\*---------------------------------------------------------------------------*/
FoamFile
{
    version     2.0;
    format      ascii;
    arch        "LSB;label=32;scalar=64";
    class       polyBoundaryMesh;
    location    "constant/polyMesh";
    object      boundary;
}
// * * * * * * * * * * * * * * * * * * * * * * * * * * * * * * * * * * * * * //

8
(
    Side
    {
        type            empty;
        inGroups        1(empty);
        nFaces          61210;
        startFace       60764;
    }
    Inlet
    {
        type            patch;
        nFaces          133;
        startFace       121974;
    }
    Airfoil
    {
        type            wall;
        inGroups        1(wall);
        nFaces          0;
        startFace       122107;
    }
    Outlet
    {
        type            patch;
        nFaces          0;
        startFace       122107;
    }
    procBoundary12to4
    {
        type            processor;
        inGroups        1(processor);
        nFaces          10;
        startFace       122107;
        matchTolerance  0.0001;
        transform       unknown;
        myProcNo        12;
        neighbProcNo    4;
    }
    procBoundary12to5
    {
        type            processor;
        inGroups        1(processor);
        nFaces          90;
        startFace       122117;
        matchTolerance  0.0001;
        transform       unknown;
        myProcNo        12;
        neighbProcNo    5;
    }
    procBoundary12to11
    {
        type            processor;
        inGroups        1(processor);
        nFaces          303;
        startFace       122207;
        matchTolerance  0.0001;
        transform       unknown;
        myProcNo        12;
        neighbProcNo    11;
    }
    procBoundary12to13
    {
        type            processor;
        inGroups        1(processor);
        nFaces          356;
        startFace       122510;
        matchTolerance  0.0001;
        transform       unknown;
        myProcNo        12;
        neighbProcNo    13;
    }
)

// ************************************************************************* //
