/*--------------------------------*- C++ -*----------------------------------*\
| =========                 |                                                 |
| \\      /  F ield         | OpenFOAM: The Open Source CFD Toolbox           |
|  \\    /   O peration     | Version:  2506                                  |
|   \\  /    A nd           | Website:  www.openfoam.com                      |
|    \\/     M anipulation  |                                                 |
\*---------------------------------------------------------------------------*/
FoamFile
{
    version     2.0;
    format      ascii;
    arch        "LSB;label=32;scalar=64";
    class       polyBoundaryMesh;
    location    "constant/polyMesh";
    object      boundary;
}
// * * * * * * * * * * * * * * * * * * * * * * * * * * * * * * * * * * * * * //

9
(
    Side
    {
        type            empty;
        inGroups        1(empty);
        nFaces          2752;
        startFace       2661;
    }
    Inlet
    {
        type            patch;
        nFaces          25;
        startFace       5413;
    }
    Airfoil
    {
        type            wall;
        inGroups        1(wall);
        nFaces          0;
        startFace       5438;
    }
    Outlet
    {
        type            patch;
        nFaces          0;
        startFace       5438;
    }
    procBoundary12to4
    {
        type            processor;
        inGroups        1(processor);
        nFaces          1;
        startFace       5438;
        matchTolerance  0.0001;
        transform       unknown;
        myProcNo        12;
        neighbProcNo    4;
    }
    procBoundary12to5
    {
        type            processor;
        inGroups        1(processor);
        nFaces          30;
        startFace       5439;
        matchTolerance  0.0001;
        transform       unknown;
        myProcNo        12;
        neighbProcNo    5;
    }
    procBoundary12to6
    {
        type            processor;
        inGroups        1(processor);
        nFaces          1;
        startFace       5469;
        matchTolerance  0.0001;
        transform       unknown;
        myProcNo        12;
        neighbProcNo    6;
    }
    procBoundary12to11
    {
        type            processor;
        inGroups        1(processor);
        nFaces          65;
        startFace       5470;
        matchTolerance  0.0001;
        transform       unknown;
        myProcNo        12;
        neighbProcNo    11;
    }
    procBoundary12to13
    {
        type            processor;
        inGroups        1(processor);
        nFaces          60;
        startFace       5535;
        matchTolerance  0.0001;
        transform       unknown;
        myProcNo        12;
        neighbProcNo    13;
    }
)

// ************************************************************************* //
