/*--------------------------------*- C++ -*----------------------------------*\
| =========                 |                                                 |
| \\      /  F ield         | OpenFOAM: The Open Source CFD Toolbox           |
|  \\    /   O peration     | Version:  2506                                  |
|   \\  /    A nd           | Website:  www.openfoam.com                      |
|    \\/     M anipulation  |                                                 |
\*---------------------------------------------------------------------------*/
FoamFile
{
    version     2.0;
    format      ascii;
    arch        "LSB;label=32;scalar=64";
    class       polyBoundaryMesh;
    location    "constant/polyMesh";
    object      boundary;
}
// * * * * * * * * * * * * * * * * * * * * * * * * * * * * * * * * * * * * * //

7
(
    Side
    {
        type            empty;
        inGroups        1(empty);
        nFaces          140962;
        startFace       140315;
    }
    Inlet
    {
        type            patch;
        nFaces          195;
        startFace       281277;
    }
    Airfoil
    {
        type            wall;
        inGroups        1(wall);
        nFaces          0;
        startFace       281472;
    }
    Outlet
    {
        type            patch;
        nFaces          0;
        startFace       281472;
    }
    procBoundary12to5
    {
        type            processor;
        inGroups        1(processor);
        nFaces          161;
        startFace       281472;
        matchTolerance  0.0001;
        transform       unknown;
        myProcNo        12;
        neighbProcNo    5;
    }
    procBoundary12to11
    {
        type            processor;
        inGroups        1(processor);
        nFaces          445;
        startFace       281633;
        matchTolerance  0.0001;
        transform       unknown;
        myProcNo        12;
        neighbProcNo    11;
    }
    procBoundary12to13
    {
        type            processor;
        inGroups        1(processor);
        nFaces          493;
        startFace       282078;
        matchTolerance  0.0001;
        transform       unknown;
        myProcNo        12;
        neighbProcNo    13;
    }
)

// ************************************************************************* //
