/*--------------------------------*- C++ -*----------------------------------*\
| =========                 |                                                 |
| \\      /  F ield         | OpenFOAM: The Open Source CFD Toolbox           |
|  \\    /   O peration     | Version:  2506                                  |
|   \\  /    A nd           | Website:  www.openfoam.com                      |
|    \\/     M anipulation  |                                                 |
\*---------------------------------------------------------------------------*/
FoamFile
{
    version     2.0;
    format      ascii;
    arch        "LSB;label=32;scalar=64";
    class       polyBoundaryMesh;
    location    "constant/polyMesh";
    object      boundary;
}
// * * * * * * * * * * * * * * * * * * * * * * * * * * * * * * * * * * * * * //

6
(
    Side
    {
        type            empty;
        inGroups        1(empty);
        nFaces          140960;
        startFace       140353;
    }
    Inlet
    {
        type            patch;
        nFaces          115;
        startFace       281313;
    }
    Airfoil
    {
        type            wall;
        inGroups        1(wall);
        nFaces          0;
        startFace       281428;
    }
    Outlet
    {
        type            patch;
        nFaces          397;
        startFace       281428;
    }
    procBoundary6to5
    {
        type            processor;
        inGroups        1(processor);
        nFaces          483;
        startFace       281825;
        matchTolerance  0.0001;
        transform       unknown;
        myProcNo        6;
        neighbProcNo    5;
    }
    procBoundary6to13
    {
        type            processor;
        inGroups        1(processor);
        nFaces          219;
        startFace       282308;
        matchTolerance  0.0001;
        transform       unknown;
        myProcNo        6;
        neighbProcNo    13;
    }
)

// ************************************************************************* //
