/*--------------------------------*- C++ -*----------------------------------*\
| =========                 |                                                 |
| \\      /  F ield         | OpenFOAM: The Open Source CFD Toolbox           |
|  \\    /   O peration     | Version:  2506                                  |
|   \\  /    A nd           | Website:  www.openfoam.com                      |
|    \\/     M anipulation  |                                                 |
\*---------------------------------------------------------------------------*/
FoamFile
{
    version     2.0;
    format      ascii;
    arch        "LSB;label=32;scalar=64";
    class       polyBoundaryMesh;
    location    "constant/polyMesh";
    object      boundary;
}
// * * * * * * * * * * * * * * * * * * * * * * * * * * * * * * * * * * * * * //

7
(
    Side
    {
        type            empty;
        inGroups        1(empty);
        nFaces          6860;
        startFace       6721;
    }
    Inlet
    {
        type            patch;
        nFaces          0;
        startFace       13581;
    }
    Airfoil
    {
        type            wall;
        inGroups        1(wall);
        nFaces          68;
        startFace       13581;
    }
    Outlet
    {
        type            patch;
        nFaces          0;
        startFace       13649;
    }
    procBoundary42to10
    {
        type            processor;
        inGroups        1(processor);
        nFaces          100;
        startFace       13649;
        matchTolerance  0.0001;
        transform       unknown;
        myProcNo        42;
        neighbProcNo    10;
    }
    procBoundary42to26
    {
        type            processor;
        inGroups        1(processor);
        nFaces          42;
        startFace       13749;
        matchTolerance  0.0001;
        transform       unknown;
        myProcNo        42;
        neighbProcNo    26;
    }
    procBoundary42to30
    {
        type            processor;
        inGroups        1(processor);
        nFaces          68;
        startFace       13791;
        matchTolerance  0.0001;
        transform       unknown;
        myProcNo        42;
        neighbProcNo    30;
    }
)

// ************************************************************************* //
