/*--------------------------------*- C++ -*----------------------------------*\
| =========                 |                                                 |
| \\      /  F ield         | OpenFOAM: The Open Source CFD Toolbox           |
|  \\    /   O peration     | Version:  2506                                  |
|   \\  /    A nd           | Website:  www.openfoam.com                      |
|    \\/     M anipulation  |                                                 |
\*---------------------------------------------------------------------------*/
FoamFile
{
    version     2.0;
    format      ascii;
    arch        "LSB;label=32;scalar=64";
    class       polyBoundaryMesh;
    location    "constant/polyMesh";
    object      boundary;
}
// * * * * * * * * * * * * * * * * * * * * * * * * * * * * * * * * * * * * * //

6
(
    Side
    {
        type            empty;
        inGroups        1(empty);
        nFaces          140962;
        startFace       140164;
    }
    Inlet
    {
        type            patch;
        nFaces          399;
        startFace       281126;
    }
    Airfoil
    {
        type            wall;
        inGroups        1(wall);
        nFaces          110;
        startFace       281525;
    }
    Outlet
    {
        type            patch;
        nFaces          0;
        startFace       281635;
    }
    procBoundary7to0
    {
        type            processor;
        inGroups        1(processor);
        nFaces          423;
        startFace       281635;
        matchTolerance  0.0001;
        transform       unknown;
        myProcNo        7;
        neighbProcNo    0;
    }
    procBoundary7to8
    {
        type            processor;
        inGroups        1(processor);
        nFaces          664;
        startFace       282058;
        matchTolerance  0.0001;
        transform       unknown;
        myProcNo        7;
        neighbProcNo    8;
    }
)

// ************************************************************************* //
