/*--------------------------------*- C++ -*----------------------------------*\
| =========                 |                                                 |
| \\      /  F ield         | OpenFOAM: The Open Source CFD Toolbox           |
|  \\    /   O peration     | Version:  v2312                                 |
|   \\  /    A nd           | Website:  www.openfoam.com                      |
|    \\/     M anipulation  |                                                 |
\*---------------------------------------------------------------------------*/
FoamFile
{
    version     2.0;
    format      ascii;
    class       volScalarField;
    object      k;
}
// * * * * * * * * * * * * * * * * * * * * * * * * * * * * * * * * * * * //

dimensions      [0 2 -2 0 0 0 0];


internalField   uniform 11.99086203;

boundaryField
{

    Inlet
    {
        type            fixedValue;
        value           $internalField; 
    }

    Outlet
    {
        type            inletOutlet;
        inletValue      $internalField;
        value           $internalField; 
    }

    Airfoil
    {
        type            kqRWallFunction; 
        value           $internalField; 
    }

    Side
    {
        type            empty;
    }
}

// ************************************************************************* //