/*--------------------------------*- C++ -*----------------------------------*\
| =========                 |                                                 |
| \\      /  F ield         | OpenFOAM: The Open Source CFD Toolbox           |
|  \\    /   O peration     | Version:  v2006                                 |
|   \\  /    A nd           | Website:  www.openfoam.com                      |
|    \\/     M anipulation  |                                                 |
\*---------------------------------------------------------------------------*/
FoamFile
{
    version     2.0;
    format      ascii;
    class       volVectorField;
    object      U;
}
// * * * * * * * * * * * * * * * * * * * * * * * * * * * * * * * * * * * * * //

dimensions      [0 1 -1 0 0 0 0];

internalField   uniform (94.24 0 0); //uniform (91.03 24.39 0); //uniform (94.24 0 0); // uniform (92.8055 16.3641 0); //

boundaryField
{   
    Inlet 
    {
      type             freestreamVelocity;
      freestreamValue      uniform (94.24 0 0); //       uniform (91.03 24.39 0); //uniform (94.24 0 0); // uniform (92.8055 16.3641 0); //
    }

    Outlet
    {
      type              inletOutlet;
      inletValue        uniform (94.24 0 0); //uniform (91.03 24.39 0); //uniform (94.24 0 0); // uniform (92.8055 16.3641 0); //
      value             $internalField;
    }

    Side
    {   
        type            empty;
    }

    Airfoil
    {
        type            noSlip;
    }
     #includeEtc "caseDicts/setConstraintTypes"
}


// ************************************************************************* //
