/*--------------------------------*- C++ -*----------------------------------*\
| =========                 |                                                 |
| \\      /  F ield         | OpenFOAM: The Open Source CFD Toolbox           |
|  \\    /   O peration     | Version:  2506                                  |
|   \\  /    A nd           | Website:  www.openfoam.com                      |
|    \\/     M anipulation  |                                                 |
\*---------------------------------------------------------------------------*/
FoamFile
{
    version     2.0;
    format      ascii;
    arch        "LSB;label=32;scalar=64";
    class       polyBoundaryMesh;
    location    "constant/polyMesh";
    object      boundary;
}
// * * * * * * * * * * * * * * * * * * * * * * * * * * * * * * * * * * * * * //

11
(
    Side
    {
        type            empty;
        inGroups        1(empty);
        nFaces          6836;
        startFace       6688;
    }
    Inlet
    {
        type            patch;
        nFaces          0;
        startFace       13524;
    }
    Airfoil
    {
        type            wall;
        inGroups        1(wall);
        nFaces          0;
        startFace       13524;
    }
    Outlet
    {
        type            patch;
        nFaces          0;
        startFace       13524;
    }
    procBoundary19to3
    {
        type            processor;
        inGroups        1(processor);
        nFaces          5;
        startFace       13524;
        matchTolerance  0.0001;
        transform       unknown;
        myProcNo        19;
        neighbProcNo    3;
    }
    procBoundary19to11
    {
        type            processor;
        inGroups        1(processor);
        nFaces          82;
        startFace       13529;
        matchTolerance  0.0001;
        transform       unknown;
        myProcNo        19;
        neighbProcNo    11;
    }
    procBoundary19to22
    {
        type            processor;
        inGroups        1(processor);
        nFaces          51;
        startFace       13611;
        matchTolerance  0.0001;
        transform       unknown;
        myProcNo        19;
        neighbProcNo    22;
    }
    procBoundary19to35
    {
        type            processor;
        inGroups        1(processor);
        nFaces          62;
        startFace       13662;
        matchTolerance  0.0001;
        transform       unknown;
        myProcNo        19;
        neighbProcNo    35;
    }
    procBoundary19to43
    {
        type            processor;
        inGroups        1(processor);
        nFaces          8;
        startFace       13724;
        matchTolerance  0.0001;
        transform       unknown;
        myProcNo        19;
        neighbProcNo    43;
    }
    procBoundary19to51
    {
        type            processor;
        inGroups        1(processor);
        nFaces          77;
        startFace       13732;
        matchTolerance  0.0001;
        transform       unknown;
        myProcNo        19;
        neighbProcNo    51;
    }
    procBoundary19to54
    {
        type            processor;
        inGroups        1(processor);
        nFaces          11;
        startFace       13809;
        matchTolerance  0.0001;
        transform       unknown;
        myProcNo        19;
        neighbProcNo    54;
    }
)

// ************************************************************************* //
