/*--------------------------------*- C++ -*----------------------------------*\
| =========                 |                                                 |
| \\      /  F ield         | OpenFOAM: The Open Source CFD Toolbox           |
|  \\    /   O peration     | Version:  2506                                  |
|   \\  /    A nd           | Website:  www.openfoam.com                      |
|    \\/     M anipulation  |                                                 |
\*---------------------------------------------------------------------------*/
FoamFile
{
    version     2.0;
    format      ascii;
    arch        "LSB;label=32;scalar=64";
    class       polyBoundaryMesh;
    location    "constant/polyMesh";
    object      boundary;
}
// * * * * * * * * * * * * * * * * * * * * * * * * * * * * * * * * * * * * * //

9
(
    Side
    {
        type            empty;
        inGroups        1(empty);
        nFaces          140962;
        startFace       140166;
    }
    Inlet
    {
        type            patch;
        nFaces          368;
        startFace       281128;
    }
    Airfoil
    {
        type            wall;
        inGroups        1(wall);
        nFaces          0;
        startFace       281496;
    }
    Outlet
    {
        type            patch;
        nFaces          0;
        startFace       281496;
    }
    procBoundary11to3
    {
        type            processor;
        inGroups        1(processor);
        nFaces          21;
        startFace       281496;
        matchTolerance  0.0001;
        transform       unknown;
        myProcNo        11;
        neighbProcNo    3;
    }
    procBoundary11to4
    {
        type            processor;
        inGroups        1(processor);
        nFaces          180;
        startFace       281517;
        matchTolerance  0.0001;
        transform       unknown;
        myProcNo        11;
        neighbProcNo    4;
    }
    procBoundary11to5
    {
        type            processor;
        inGroups        1(processor);
        nFaces          8;
        startFace       281697;
        matchTolerance  0.0001;
        transform       unknown;
        myProcNo        11;
        neighbProcNo    5;
    }
    procBoundary11to10
    {
        type            processor;
        inGroups        1(processor);
        nFaces          570;
        startFace       281705;
        matchTolerance  0.0001;
        transform       unknown;
        myProcNo        11;
        neighbProcNo    10;
    }
    procBoundary11to12
    {
        type            processor;
        inGroups        1(processor);
        nFaces          445;
        startFace       282275;
        matchTolerance  0.0001;
        transform       unknown;
        myProcNo        11;
        neighbProcNo    12;
    }
)

// ************************************************************************* //
