/*--------------------------------*- C++ -*----------------------------------*\
| =========                 |                                                 |
| \\      /  F ield         | OpenFOAM: The Open Source CFD Toolbox           |
|  \\    /   O peration     | Version:  2506                                  |
|   \\  /    A nd           | Website:  www.openfoam.com                      |
|    \\/     M anipulation  |                                                 |
\*---------------------------------------------------------------------------*/
FoamFile
{
    version     2.0;
    format      ascii;
    arch        "LSB;label=32;scalar=64";
    class       polyBoundaryMesh;
    location    "constant/polyMesh";
    object      boundary;
}
// * * * * * * * * * * * * * * * * * * * * * * * * * * * * * * * * * * * * * //

10
(
    Side
    {
        type            empty;
        inGroups        1(empty);
        nFaces          6888;
        startFace       6742;
    }
    Inlet
    {
        type            patch;
        nFaces          0;
        startFace       13630;
    }
    Airfoil
    {
        type            wall;
        inGroups        1(wall);
        nFaces          0;
        startFace       13630;
    }
    Outlet
    {
        type            patch;
        nFaces          0;
        startFace       13630;
    }
    procBoundary11to15
    {
        type            processor;
        inGroups        1(processor);
        nFaces          88;
        startFace       13630;
        matchTolerance  0.0001;
        transform       unknown;
        myProcNo        11;
        neighbProcNo    15;
    }
    procBoundary11to19
    {
        type            processor;
        inGroups        1(processor);
        nFaces          82;
        startFace       13718;
        matchTolerance  0.0001;
        transform       unknown;
        myProcNo        11;
        neighbProcNo    19;
    }
    procBoundary11to22
    {
        type            processor;
        inGroups        1(processor);
        nFaces          4;
        startFace       13800;
        matchTolerance  0.0001;
        transform       unknown;
        myProcNo        11;
        neighbProcNo    22;
    }
    procBoundary11to30
    {
        type            processor;
        inGroups        1(processor);
        nFaces          18;
        startFace       13804;
        matchTolerance  0.0001;
        transform       unknown;
        myProcNo        11;
        neighbProcNo    30;
    }
    procBoundary11to43
    {
        type            processor;
        inGroups        1(processor);
        nFaces          85;
        startFace       13822;
        matchTolerance  0.0001;
        transform       unknown;
        myProcNo        11;
        neighbProcNo    43;
    }
    procBoundary11to47
    {
        type            processor;
        inGroups        1(processor);
        nFaces          15;
        startFace       13907;
        matchTolerance  0.0001;
        transform       unknown;
        myProcNo        11;
        neighbProcNo    47;
    }
)

// ************************************************************************* //
