/*--------------------------------*- C++ -*----------------------------------*\
| =========                 |                                                 |
| \\      /  F ield         | OpenFOAM: The Open Source CFD Toolbox           |
|  \\    /   O peration     | Version:  2506                                  |
|   \\  /    A nd           | Website:  www.openfoam.com                      |
|    \\/     M anipulation  |                                                 |
\*---------------------------------------------------------------------------*/
FoamFile
{
    version     2.0;
    format      ascii;
    arch        "LSB;label=32;scalar=64";
    class       polyBoundaryMesh;
    location    "constant/polyMesh";
    object      boundary;
}
// * * * * * * * * * * * * * * * * * * * * * * * * * * * * * * * * * * * * * //

9
(
    Side
    {
        type            empty;
        inGroups        1(empty);
        nFaces          6842;
        startFace       6695;
    }
    Inlet
    {
        type            patch;
        nFaces          74;
        startFace       13537;
    }
    Airfoil
    {
        type            wall;
        inGroups        1(wall);
        nFaces          0;
        startFace       13611;
    }
    Outlet
    {
        type            patch;
        nFaces          0;
        startFace       13611;
    }
    procBoundary46to6
    {
        type            processor;
        inGroups        1(processor);
        nFaces          34;
        startFace       13611;
        matchTolerance  0.0001;
        transform       unknown;
        myProcNo        46;
        neighbProcNo    6;
    }
    procBoundary46to14
    {
        type            processor;
        inGroups        1(processor);
        nFaces          91;
        startFace       13645;
        matchTolerance  0.0001;
        transform       unknown;
        myProcNo        46;
        neighbProcNo    14;
    }
    procBoundary46to22
    {
        type            processor;
        inGroups        1(processor);
        nFaces          6;
        startFace       13736;
        matchTolerance  0.0001;
        transform       unknown;
        myProcNo        46;
        neighbProcNo    22;
    }
    procBoundary46to38
    {
        type            processor;
        inGroups        1(processor);
        nFaces          54;
        startFace       13742;
        matchTolerance  0.0001;
        transform       unknown;
        myProcNo        46;
        neighbProcNo    38;
    }
    procBoundary46to50
    {
        type            processor;
        inGroups        1(processor);
        nFaces          35;
        startFace       13796;
        matchTolerance  0.0001;
        transform       unknown;
        myProcNo        46;
        neighbProcNo    50;
    }
)

// ************************************************************************* //
