/*--------------------------------*- C++ -*----------------------------------*\
| =========                 |                                                 |
| \\      /  F ield         | OpenFOAM: The Open Source CFD Toolbox           |
|  \\    /   O peration     | Version:  2506                                  |
|   \\  /    A nd           | Website:  www.openfoam.com                      |
|    \\/     M anipulation  |                                                 |
\*---------------------------------------------------------------------------*/
FoamFile
{
    version     2.0;
    format      ascii;
    arch        "LSB;label=32;scalar=64";
    class       polyBoundaryMesh;
    location    "constant/polyMesh";
    object      boundary;
}
// * * * * * * * * * * * * * * * * * * * * * * * * * * * * * * * * * * * * * //

11
(
    Side
    {
        type            empty;
        inGroups        1(empty);
        nFaces          6854;
        startFace       6699;
    }
    Inlet
    {
        type            patch;
        nFaces          0;
        startFace       13553;
    }
    Airfoil
    {
        type            wall;
        inGroups        1(wall);
        nFaces          0;
        startFace       13553;
    }
    Outlet
    {
        type            patch;
        nFaces          0;
        startFace       13553;
    }
    procBoundary22to11
    {
        type            processor;
        inGroups        1(processor);
        nFaces          4;
        startFace       13553;
        matchTolerance  0.0001;
        transform       unknown;
        myProcNo        22;
        neighbProcNo    11;
    }
    procBoundary22to14
    {
        type            processor;
        inGroups        1(processor);
        nFaces          52;
        startFace       13557;
        matchTolerance  0.0001;
        transform       unknown;
        myProcNo        22;
        neighbProcNo    14;
    }
    procBoundary22to19
    {
        type            processor;
        inGroups        1(processor);
        nFaces          51;
        startFace       13609;
        matchTolerance  0.0001;
        transform       unknown;
        myProcNo        22;
        neighbProcNo    19;
    }
    procBoundary22to30
    {
        type            processor;
        inGroups        1(processor);
        nFaces          49;
        startFace       13660;
        matchTolerance  0.0001;
        transform       unknown;
        myProcNo        22;
        neighbProcNo    30;
    }
    procBoundary22to38
    {
        type            processor;
        inGroups        1(processor);
        nFaces          60;
        startFace       13709;
        matchTolerance  0.0001;
        transform       unknown;
        myProcNo        22;
        neighbProcNo    38;
    }
    procBoundary22to46
    {
        type            processor;
        inGroups        1(processor);
        nFaces          6;
        startFace       13769;
        matchTolerance  0.0001;
        transform       unknown;
        myProcNo        22;
        neighbProcNo    46;
    }
    procBoundary22to54
    {
        type            processor;
        inGroups        1(processor);
        nFaces          88;
        startFace       13775;
        matchTolerance  0.0001;
        transform       unknown;
        myProcNo        22;
        neighbProcNo    54;
    }
)

// ************************************************************************* //
