/*--------------------------------*- C++ -*----------------------------------*\
| =========                 |                                                 |
| \\      /  F ield         | OpenFOAM: The Open Source CFD Toolbox           |
|  \\    /   O peration     | Version:  2506                                  |
|   \\  /    A nd           | Website:  www.openfoam.com                      |
|    \\/     M anipulation  |                                                 |
\*---------------------------------------------------------------------------*/
FoamFile
{
    version     2.0;
    format      ascii;
    arch        "LSB;label=32;scalar=64";
    class       polyBoundaryMesh;
    location    "constant/polyMesh";
    object      boundary;
}
// * * * * * * * * * * * * * * * * * * * * * * * * * * * * * * * * * * * * * //

8
(
    Side
    {
        type            empty;
        inGroups        1(empty);
        nFaces          6848;
        startFace       6690;
    }
    Inlet
    {
        type            patch;
        nFaces          0;
        startFace       13538;
    }
    Airfoil
    {
        type            wall;
        inGroups        1(wall);
        nFaces          113;
        startFace       13538;
    }
    Outlet
    {
        type            patch;
        nFaces          0;
        startFace       13651;
    }
    procBoundary24to8
    {
        type            processor;
        inGroups        1(processor);
        nFaces          59;
        startFace       13651;
        matchTolerance  0.0001;
        transform       unknown;
        myProcNo        24;
        neighbProcNo    8;
    }
    procBoundary24to16
    {
        type            processor;
        inGroups        1(processor);
        nFaces          33;
        startFace       13710;
        matchTolerance  0.0001;
        transform       unknown;
        myProcNo        24;
        neighbProcNo    16;
    }
    procBoundary24to36
    {
        type            processor;
        inGroups        1(processor);
        nFaces          77;
        startFace       13743;
        matchTolerance  0.0001;
        transform       unknown;
        myProcNo        24;
        neighbProcNo    36;
    }
    procBoundary24to40
    {
        type            processor;
        inGroups        1(processor);
        nFaces          34;
        startFace       13820;
        matchTolerance  0.0001;
        transform       unknown;
        myProcNo        24;
        neighbProcNo    40;
    }
)

// ************************************************************************* //
