/*--------------------------------*- C++ -*----------------------------------*\
| =========                 |                                                 |
| \\      /  F ield         | OpenFOAM: The Open Source CFD Toolbox           |
|  \\    /   O peration     | Version:  2506                                  |
|   \\  /    A nd           | Website:  www.openfoam.com                      |
|    \\/     M anipulation  |                                                 |
\*---------------------------------------------------------------------------*/
FoamFile
{
    version     2.0;
    format      ascii;
    arch        "LSB;label=32;scalar=64";
    class       polyBoundaryMesh;
    location    "constant/polyMesh";
    object      boundary;
}
// * * * * * * * * * * * * * * * * * * * * * * * * * * * * * * * * * * * * * //

8
(
    Side
    {
        type            empty;
        inGroups        1(empty);
        nFaces          6938;
        startFace       6795;
    }
    Inlet
    {
        type            patch;
        nFaces          58;
        startFace       13733;
    }
    Airfoil
    {
        type            wall;
        inGroups        1(wall);
        nFaces          0;
        startFace       13791;
    }
    Outlet
    {
        type            patch;
        nFaces          0;
        startFace       13791;
    }
    procBoundary23to27
    {
        type            processor;
        inGroups        1(processor);
        nFaces          49;
        startFace       13791;
        matchTolerance  0.0001;
        transform       unknown;
        myProcNo        23;
        neighbProcNo    27;
    }
    procBoundary23to43
    {
        type            processor;
        inGroups        1(processor);
        nFaces          62;
        startFace       13840;
        matchTolerance  0.0001;
        transform       unknown;
        myProcNo        23;
        neighbProcNo    43;
    }
    procBoundary23to47
    {
        type            processor;
        inGroups        1(processor);
        nFaces          34;
        startFace       13902;
        matchTolerance  0.0001;
        transform       unknown;
        myProcNo        23;
        neighbProcNo    47;
    }
    procBoundary23to55
    {
        type            processor;
        inGroups        1(processor);
        nFaces          83;
        startFace       13936;
        matchTolerance  0.0001;
        transform       unknown;
        myProcNo        23;
        neighbProcNo    55;
    }
)

// ************************************************************************* //
