/*--------------------------------*- C++ -*----------------------------------*\
| =========                 |                                                 |
| \\      /  F ield         | OpenFOAM: The Open Source CFD Toolbox           |
|  \\    /   O peration     | Version:  2506                                  |
|   \\  /    A nd           | Website:  www.openfoam.com                      |
|    \\/     M anipulation  |                                                 |
\*---------------------------------------------------------------------------*/
FoamFile
{
    version     2.0;
    format      ascii;
    arch        "LSB;label=32;scalar=64";
    class       polyBoundaryMesh;
    location    "constant/polyMesh";
    object      boundary;
}
// * * * * * * * * * * * * * * * * * * * * * * * * * * * * * * * * * * * * * //

8
(
    Side
    {
        type            empty;
        inGroups        1(empty);
        nFaces          6946;
        startFace       6814;
    }
    Inlet
    {
        type            patch;
        nFaces          0;
        startFace       13760;
    }
    Airfoil
    {
        type            wall;
        inGroups        1(wall);
        nFaces          56;
        startFace       13760;
    }
    Outlet
    {
        type            patch;
        nFaces          0;
        startFace       13816;
    }
    procBoundary4to12
    {
        type            processor;
        inGroups        1(processor);
        nFaces          45;
        startFace       13816;
        matchTolerance  0.0001;
        transform       unknown;
        myProcNo        4;
        neighbProcNo    12;
    }
    procBoundary4to20
    {
        type            processor;
        inGroups        1(processor);
        nFaces          66;
        startFace       13861;
        matchTolerance  0.0001;
        transform       unknown;
        myProcNo        4;
        neighbProcNo    20;
    }
    procBoundary4to36
    {
        type            processor;
        inGroups        1(processor);
        nFaces          71;
        startFace       13927;
        matchTolerance  0.0001;
        transform       unknown;
        myProcNo        4;
        neighbProcNo    36;
    }
    procBoundary4to52
    {
        type            processor;
        inGroups        1(processor);
        nFaces          26;
        startFace       13998;
        matchTolerance  0.0001;
        transform       unknown;
        myProcNo        4;
        neighbProcNo    52;
    }
)

// ************************************************************************* //
